omf/static/testFiles/pyCIGAR/ieee37busdata/ieee37_LBL.dss
Clear

! Note that this is a 3-wire delta system. 
! Node voltages in OpenDSS are normally line-ground and may give strange-looking results
! Be careful if you put line-neutral connected loads or other devices on this circuit.
new object=circuit.ieee37_LBL basekv=230 pu=1.00 MVAsc3=200000 MVAsc1=210000

! Substation Transformer
new object=Transformer.SubXF Phases=3 Xhl=8 buses=[sourcebus.1.2.3,799.1.2.3] conns=[Delta,Delta] kvs=[230,4.8] kvas=[2500,2500] %rs=[1,1]

! These are for the 37-node test feeder, all underground

new object=linecode.721 nphases=3 BaseFreq=60 rmatrix=[0.055416667|0.012746212,0.050113636|0.006382576,0.012746212,0.055416667] xmatrix=[0.037367424|-0.006969697,0.035984848|-0.007897727,-0.006969697,0.037367424] cmatrix=[80.27484728|0,80.27484728|0,0,80.27484728]
new object=linecode.722 nphases=3 BaseFreq=60 rmatrix=[0.089981061|0.030852273,0.085|0.023371212,0.030852273,0.089981061] xmatrix=[0.056306818|-0.006174242,0.050719697|-0.011496212,-0.006174242,0.056306818] cmatrix=[64.2184109|0,64.2184109|0,0,64.2184109]
new object=linecode.723 nphases=3 BaseFreq=60 rmatrix=[0.245|0.092253788,0.246628788|0.086837121,0.092253788,0.245] xmatrix=[0.127140152|0.039981061,0.119810606|0.028806818,0.039981061,0.127140152] cmatrix=[37.5977112|0,37.5977112|0,0,37.5977112]
new object=linecode.724 nphases=3 BaseFreq=60 rmatrix=[0.396818182|0.098560606,0.399015152|0.093295455,0.098560606,0.396818182] xmatrix=[0.146931818|0.051856061,0.140113636|0.040208333,0.051856061,0.146931818] cmatrix=[30.26701029|0,30.26701029|0,0,30.26701029]

! Lines
new object=Line.L1 Phases=3 Bus1=701.1.2.3 Bus2=702.1.2.3 LineCode=722 Length=0.96
new object=Line.L2 Phases=3 Bus1=702.1.2.3 Bus2=705.1.2.3 LineCode=724 Length=0.4
new object=Line.L3 Phases=3 Bus1=702.1.2.3 Bus2=713.1.2.3 LineCode=723 Length=0.36
new object=Line.L4 Phases=3 Bus1=702.1.2.3 Bus2=703.1.2.3 LineCode=722 Length=1.32
new object=Line.L5 Phases=3 Bus1=703.1.2.3 Bus2=727.1.2.3 LineCode=724 Length=0.24
new object=Line.L6 Phases=3 Bus1=703.1.2.3 Bus2=730.1.2.3 LineCode=723 Length=0.6
new object=Line.L7 Phases=3 Bus1=704.1.2.3 Bus2=714.1.2.3 LineCode=724 Length=0.08
new object=Line.L8 Phases=3 Bus1=704.1.2.3 Bus2=720.1.2.3 LineCode=723 Length=0.8
new object=Line.L9 Phases=3 Bus1=705.1.2.3 Bus2=742.1.2.3 LineCode=724 Length=0.32
new object=Line.L10 Phases=3 Bus1=705.1.2.3 Bus2=712.1.2.3 LineCode=724 Length=0.24
new object=Line.L11 Phases=3 Bus1=706.1.2.3 Bus2=725.1.2.3 LineCode=724 Length=0.28
new object=Line.L12 Phases=3 Bus1=707.1.2.3 Bus2=724.1.2.3 LineCode=724 Length=0.76
new object=Line.L13 Phases=3 Bus1=707.1.2.3 Bus2=722.1.2.3 LineCode=724 Length=0.12
new object=Line.L14 Phases=3 Bus1=708.1.2.3 Bus2=733.1.2.3 LineCode=723 Length=0.32
new object=Line.L15 Phases=3 Bus1=708.1.2.3 Bus2=732.1.2.3 LineCode=724 Length=0.32
new object=Line.L16 Phases=3 Bus1=709.1.2.3 Bus2=731.1.2.3 LineCode=723 Length=0.6
new object=Line.L17 Phases=3 Bus1=709.1.2.3 Bus2=708.1.2.3 LineCode=723 Length=0.32
new object=Line.L18 Phases=3 Bus1=710.1.2.3 Bus2=735.1.2.3 LineCode=724 Length=0.2
new object=Line.L19 Phases=3 Bus1=710.1.2.3 Bus2=736.1.2.3 LineCode=724 Length=1.28
new object=Line.L20 Phases=3 Bus1=711.1.2.3 Bus2=741.1.2.3 LineCode=723 Length=0.4
new object=Line.L21 Phases=3 Bus1=711.1.2.3 Bus2=740.1.2.3 LineCode=724 Length=0.2
new object=Line.L22 Phases=3 Bus1=713.1.2.3 Bus2=704.1.2.3 LineCode=723 Length=0.52
new object=Line.L23 Phases=3 Bus1=714.1.2.3 Bus2=718.1.2.3 LineCode=724 Length=0.52
new object=Line.L24 Phases=3 Bus1=720.1.2.3 Bus2=707.1.2.3 LineCode=724 Length=0.92
new object=Line.L25 Phases=3 Bus1=720.1.2.3 Bus2=706.1.2.3 LineCode=723 Length=0.6
new object=Line.L26 Phases=3 Bus1=727.1.2.3 Bus2=744.1.2.3 LineCode=723 Length=0.28
new object=Line.L27 Phases=3 Bus1=730.1.2.3 Bus2=709.1.2.3 LineCode=723 Length=0.2
new object=Line.L28 Phases=3 Bus1=733.1.2.3 Bus2=734.1.2.3 LineCode=723 Length=0.56
new object=Line.L29 Phases=3 Bus1=734.1.2.3 Bus2=737.1.2.3 LineCode=723 Length=0.64
new object=Line.L30 Phases=3 Bus1=734.1.2.3 Bus2=710.1.2.3 LineCode=724 Length=0.52
new object=Line.L31 Phases=3 Bus1=737.1.2.3 Bus2=738.1.2.3 LineCode=723 Length=0.4
new object=Line.L32 Phases=3 Bus1=738.1.2.3 Bus2=711.1.2.3 LineCode=723 Length=0.4
new object=Line.L33 Phases=3 Bus1=744.1.2.3 Bus2=728.1.2.3 LineCode=724 Length=0.2
new object=Line.L34 Phases=3 Bus1=744.1.2.3 Bus2=729.1.2.3 LineCode=724 Length=0.28
new object=Line.L35 Phases=3 Bus1=799r.1.2.3 Bus2=701.1.2.3 LineCode=721 Length=1.85

new object=Transformer.reg1 phases=3 bank=reg1 XHL=0.01 kVAs=[2500,2500] Buses=[799.1.2.3,799r.1.2.3] kVs=[2.77128129,2.77128129] %LoadLoss=0.01
new object=regcontrol.reg1a transformer=reg1 bus=799r.1 winding=2 vreg=138 band=2 ptratio=20 !ctprim=700 !R=1 X=3

! spot loads
new object=Load.S701a Bus1=701.1.2 Phases=1 Conn=Delta Model=1 kV=4.800 kW=140.0 kVAR=70.0
new object=Load.S701b Bus1=701.2.3 Phases=1 Conn=Delta Model=1 kV=4.800 kW=140.0 kVAR=70.0
new object=Load.S701c Bus1=701.3.1 Phases=1 Conn=Delta Model=1 kV=4.800 kW=350.0 kVAR=175.0
new object=Load.S712c Bus1=712.3.1 Phases=1 Conn=Delta Model=1 kV=4.800 kW=85.0 kVAR=40.0
new object=Load.S713c Bus1=713.3.1 Phases=1 Conn=Delta Model=1 kV=4.800 kW=85.0 kVAR=40.0
new object=Load.S714a Bus1=714.1.2 Phases=1 Conn=Delta Model=4 kV=4.800 kW=17.0 kVAR=8.0
new object=Load.S714b Bus1=714.2.3 Phases=1 Conn=Delta Model=4 kV=4.800 kW=21.0 kVAR=10.0
new object=Load.S718a Bus1=718.1.2 Phases=1 Conn=Delta Model=2 kV=4.800 kW=85.0 kVAR=40.0
new object=Load.S720c Bus1=720.3.1 Phases=1 Conn=Delta Model=1 kV=4.800 kW=85.0 kVAR=40.0
new object=Load.S722b Bus1=722.2.3 Phases=1 Conn=Delta Model=4 kV=4.800 kW=140.0 kVAR=70.0
new object=Load.S722c Bus1=722.3.1 Phases=1 Conn=Delta Model=4 kV=4.800 kW=21.0 kVAR=10.0
new object=Load.S724b Bus1=724.2.3 Phases=1 Conn=Delta Model=2 kV=4.800 kW=42.0 kVAR=21.0
new object=Load.S725b Bus1=725.2.3 Phases=1 Conn=Delta Model=1 kV=4.800 kW=42.0 kVAR=21.0
new object=Load.S727c Bus1=727.3.1 Phases=1 Conn=Delta Model=1 kV=4.800 kW=42.0 kVAR=21.0
new object=Load.S728 Bus1=728.1.2.3 Phases=3 Conn=Delta Model=1 kV=4.800 kW=126.0 kVAR=63.0
new object=Load.S729a Bus1=729.1.2 Phases=1 Conn=Delta Model=4 kV=4.800 kW=42.0 kVAR=21.0
new object=Load.S730c Bus1=730.3.1 Phases=1 Conn=Delta Model=2 kV=4.800 kW=85.0 kVAR=40.0
new object=Load.S731b Bus1=731.2.3 Phases=1 Conn=Delta Model=2 kV=4.800 kW=85.0 kVAR=40.0
new object=Load.S732c Bus1=732.3.1 Phases=1 Conn=Delta Model=1 kV=4.800 kW=42.0 kVAR=21.0
new object=Load.S733a Bus1=733.1.2 Phases=1 Conn=Delta Model=4 kV=4.800 kW=85.0 kVAR=40.0
new object=Load.S734c Bus1=734.3.1 Phases=1 Conn=Delta Model=1 kV=4.800 kW=42.0 kVAR=21.0
new object=Load.S735c Bus1=735.3.1 Phases=1 Conn=Delta Model=1 kV=4.800 kW=85.0 kVAR=40.0
new object=Load.S736b Bus1=736.2.3 Phases=1 Conn=Delta Model=2 kV=4.800 kW=42.0 kVAR=21.0
new object=Load.S737a Bus1=737.1.2 Phases=1 Conn=Delta Model=4 kV=4.800 kW=140.0 kVAR=70.0
new object=Load.S738a Bus1=738.1.2 Phases=1 Conn=Delta Model=1 kV=4.800 kW=126.0 kVAR=62.0
new object=Load.S740c Bus1=740.3.1 Phases=1 Conn=Delta Model=1 kV=4.800 kW=85.0 kVAR=40.0
new object=Load.S741c Bus1=741.3.1 Phases=1 Conn=Delta Model=4 kV=4.800 kW=42.0 kVAR=21.0
new object=Load.S742a Bus1=742.1.2 Phases=1 Conn=Delta Model=2 kV=4.800 kW=8.0 kVAR=4.0
new object=Load.S742b Bus1=742.2.3 Phases=1 Conn=Delta Model=2 kV=4.800 kW=85.0 kVAR=40.0
new object=Load.S744a Bus1=744.1.2 Phases=1 Conn=Delta Model=1 kV=4.800 kW=42.0 kVAR=21.0

Makebuslist
Set VoltageBases=[230,4.8,0.48]
CalcVoltageBases
setbusxy bus=sourcebus x=0 y=0
setbusxy bus=701 x=0 y=0
setbusxy bus=702 x=0 y=0
setbusxy bus=705 x=0 y=0
setbusxy bus=713 x=0 y=0
setbusxy bus=703 x=0 y=0
setbusxy bus=727 x=0 y=0
setbusxy bus=730 x=0 y=0
setbusxy bus=704 x=0 y=0
setbusxy bus=714 x=0 y=0
setbusxy bus=720 x=0 y=0
setbusxy bus=742 x=0 y=0
setbusxy bus=712 x=0 y=0
setbusxy bus=706 x=0 y=0
setbusxy bus=725 x=0 y=0
setbusxy bus=707 x=0 y=0
setbusxy bus=724 x=0 y=0
setbusxy bus=722 x=0 y=0
setbusxy bus=708 x=0 y=0
setbusxy bus=733 x=0 y=0
setbusxy bus=732 x=0 y=0
setbusxy bus=709 x=0 y=0
setbusxy bus=731 x=0 y=0
setbusxy bus=710 x=0 y=0
setbusxy bus=735 x=0 y=0
setbusxy bus=736 x=0 y=0
setbusxy bus=711 x=0 y=0
setbusxy bus=741 x=0 y=0
setbusxy bus=740 x=0 y=0
setbusxy bus=718 x=0 y=0
setbusxy bus=744 x=0 y=0
setbusxy bus=734 x=0 y=0
setbusxy bus=737 x=0 y=0
setbusxy bus=738 x=0 y=0
setbusxy bus=728 x=0 y=0
setbusxy bus=729 x=0 y=0
setbusxy bus=799r x=0 y=0
setbusxy bus=799 x=0 y=0
! solve mode=direct
set maxiterations=100
solve

! show voltages LL Nodes
! show currents residual=y elements
! show powers kva elements
! show taps
